Stray ".ends" card: .ends
Stray ".ends" card: .ends
Stray ".ends" card: .ends
Stray ".ends" card: .ends
Stray ".ends" card: .ends
Circuit: Monostable Multivibrator with LM324

Warning: Multiple definitions of model "1n4001" Type: Diode
Warning: Multiple definitions of model "cd4007p_v3" Type: Mos1
Warning: Multiple definitions of model "cd4007n_v3" Type: Mos1
Limiting rise time of source vin to 0.0001
Limiting fall time of source vin to 0.0001
Direct Newton iteration failed to find .op point.  (Use ".option noopiter" to skip.)
Starting Gmin stepping
Gmin = 10
Gmin = 1.07374
vernier = 0.5
vernier = 0.25
vernier = 0.125
Gmin = 1.02385
vernier = 0.0625
vernier = 0.03125
vernier = 0.015625
Gmin = 1.01955
vernier = 0.0078125
vernier = 0.00390625
Gmin = 1.01162
vernier = 0.00520833
vernier = 0.00260417
vernier = 0.00130208
Gmin = 1.00801
vernier = 0.00173611
vernier = 0.000868055
Gmin = 1.00593
vernier = 0.00115741
vernier = 0.000578703
vernier = 0.000771604
Gmin = 1.00452
vernier = 0.000578703
vernier = 0.000434027
Gmin = 1.00381
vernier = 0.000578703
vernier = 0.000434027
Gmin = 0
Gmin stepping failed

Starting source stepping with srcstepmethod=0
Source Step = 3.0303%
Source Step = 33.3333%
Source Step = 63.6364%
Source Step = 86.3636%
Source Step = 93.9394%
Source stepping succeeded in finding the operating point.


Date: Mon May 20 00:47:34 2019
Total elapsed time: 1.438 seconds.

tnom = 27
temp = 27
method = modified trap
totiter = 14908
traniter = 9128
tranpoints = 2872
accept = 2305
rejected = 567
matrix size = 42
fillins = 72
solver = Normal
Matrix Compiler1: 5.96 KB object code size  8.2/7.3/[2.8]
Matrix Compiler2: 4.57 KB object code size  2.5/3.9/[2.3]

