Circuit: *

Warning: Multiple definitions of model "1n4001" Type: Diode
Direct Newton iteration for .op point succeeded.

Date: Sat May 25 16:29:46 2019
Total elapsed time: 0.140 seconds.

tnom = 27
temp = 27
method = modified trap
totiter = 2086
traniter = 2082
tranpoints = 1042
accept = 1042
rejected = 0
matrix size = 6
fillins = 0
solver = Normal
Matrix Compiler1: 146 bytes object code size  0.3/0.3/[0.3]
Matrix Compiler2: 380 bytes object code size  0.2/0.4/[0.2]

