Stray ".ends" card: .ends
Stray ".ends" card: .ends
Stray ".ends" card: .ends
Stray ".ends" card: .ends
Stray ".ends" card: .ends
Circuit: *

Warning: Multiple definitions of model "1n4001" Type: Diode
Warning: Multiple definitions of model "cd4007p_v3" Type: Mos1
Warning: Multiple definitions of model "cd4007n_v3" Type: Mos1
Direct Newton iteration for .op point succeeded.

Date: Sun May 19 23:59:51 2019
Total elapsed time: 0.312 seconds.

tnom = 27
temp = 27
method = modified trap
totiter = 10508
traniter = 10496
tranpoints = 3798
accept = 3068
rejected = 730
matrix size = 12
fillins = 6
solver = Normal
Matrix Compiler1: 802 bytes object code size  0.9/0.7/[0.7]
Matrix Compiler2: off  [0.5]/1.1/0.5

