Stray ".ends" card: .ends
Stray ".ends" card: .ends
Stray ".ends" card: .ends
Stray ".ends" card: .ends
Stray ".ends" card: .ends
Circuit: *

WARNING: Can't resolve .param vdd1=vdd
